UCSDcircuit_evlaods/OutputDSS.dss
Clear

New Circuit.ucsdMicrogrid_Reduced bus1=SDG&E_69KV basekv=69 pu=1 angle=0 frequency=60 MVAsc3=20000 MVAsc1=20000 x1r1=8.6 x0r0=8.9 BaseFreq=60
New Line.mcss_mc_ss_51_ec Phases=3 bus1=mcss_mc.1.2.3 bus2=ss_51_ec.1.2.3 Units=km Length=0.505968 Rmatrix=[ 0.071084665276    0.0120296663035    0.0120296663035| 0.0120296663035     0.071084665276    0.0120296663035| 0.0120296663035    0.0120296663035     0.071084665276|] Xmatrix=[ 0.138888665633    0.0503056660614    0.0503056660614| 0.0503056660614     0.138888665633    0.0503056660614| 0.0503056660614    0.0503056660614     0.138888665633|] Cmatrix=[0                  0                  0| 0                  0                  0| 0                  0                  0|]
New Line.east_campus_1_revelle_1 Phases=3 bus1=east_campus_1.1.2.3 bus2=revelle_1.1.2.3 Units=km Length=2.479548 Rmatrix=[0.0710846482299    0.0120296618873    0.0120296618873| 0.0120296618873      0.07108464823    0.0120296618873| 0.0120296618873    0.0120296618873    0.0710846482299|] Xmatrix=[ 0.138888652981    0.0503056586719    0.0503056586719| 0.0503056586719     0.138888652981    0.0503056586719| 0.0503056586719    0.0503056586719     0.138888652981|] Cmatrix=[0                  0                  0| 0                  0                  0| 0                  0                  0|]
New Line.east_campus_1_ss_20_ec Phases=3 bus1=east_campus_1.1.2.3 bus2=ss_20_ec.1.2.3 Units=km Length=1.22682 Rmatrix=[0.0710846617401    0.0120296653888    0.0120296653888| 0.0120296653888    0.0710846617401    0.0120296653888| 0.0120296653888    0.0120296653888    0.0710846617401|] Xmatrix=[ 0.138888663009    0.0503056645297    0.0503056645297| 0.0503056645297     0.138888663009    0.0503056645297| 0.0503056645297    0.0503056645297     0.138888663009|] Cmatrix=[0                  0                  0| 0                  0                  0| 0                  0                  0|]
New Line.east_campus_1_mcss_ma Phases=3 bus1=east_campus_1.1.2.3 bus2=mcss_ma.1.2.3 Units=km Length=0.4227576 Rmatrix=[ 0.0513999996692   0.00874899991875   0.00874899991875| 0.00874899991875    0.0513999996691   0.00874899991875| 0.00874899991875   0.00874899991875    0.0513999996692|] Xmatrix=[ 0.125767332989    0.0437463331638    0.0437463331638| 0.0437463331638     0.125767332989    0.0437463331638| 0.0437463331638    0.0437463331638     0.125767332989|] Cmatrix=[0                  0                  0| 0                  0                  0| 0                  0                  0|]
New Line.east_campus_1_n_campus_a Phases=3 bus1=east_campus_1.1.2.3 bus2=n_campus_a.1.2.3 Units=km Length=1.435608 Rmatrix=[0.0710846604943    0.0120296650673    0.0120296650668| 0.0120296650673    0.0710846604946    0.0120296650671| 0.0120296650668    0.0120296650671    0.0710846605005|] Xmatrix=[ 0.138888662085    0.0503056639906    0.0503056639907| 0.0503056639906     0.138888662076    0.0503056639902| 0.0503056639907    0.0503056639902     0.138888662085|] Cmatrix=[0                  0                  0| 0                  0                  0| 0                  0                  0|]
New Line.psb_sg1_bus Phases=3 bus1=psb.1.2.3 bus2=sg1_bus.1.2.3 Units=km Length=0.085344 Rmatrix=[0.0710846666662    0.0120296666666    0.0120296666667| 0.0120296666666    0.0710846666663    0.0120296666666| 0.0120296666667    0.0120296666666    0.0710846666662|] Xmatrix=[ 0.138888666666    0.0503056666666    0.0503056666667| 0.0503056666666     0.138888666666    0.0503056666666| 0.0503056666667    0.0503056666666     0.138888666666|] Cmatrix=[0                  0                  0| 0                  0                  0| 0                  0                  0|]
New Line.psb_psb_line_tg_2 Phases=3 bus1=psb.1.2.3 bus2=psb_line_tg_2.1.2.3 Units=km Length=0.0003048 Rmatrix=[0.0710846666667    0.0120296666667    0.0120296666666| 0.0120296666667    0.0710846666663    0.0120296666667| 0.0120296666666    0.0120296666667    0.0710846666659|] Xmatrix=[ 0.138888666667    0.0503056666667    0.0503056666663| 0.0503056666667     0.138888666667    0.0503056666668| 0.0503056666663    0.0503056666668     0.138888666666|] Cmatrix=[0                  0                  0| 0                  0                  0| 0                  0                  0|]
New Line.n_campus_b_ss_15_erc Phases=3 bus1=n_campus_b.1.2.3 bus2=ss_15_erc.1.2.3 Units=km Length=1.5279624 Rmatrix=[0.0710846498628    0.0120296622979    0.0120296622979| 0.0120296622979    0.0710846498628    0.0120296622979| 0.0120296622979    0.0120296622979    0.0710846498628|] Xmatrix=[ 0.138888654188    0.0503056593692    0.0503056593692| 0.0503056593692     0.138888654188    0.0503056593692| 0.0503056593692    0.0503056593692     0.138888654188|] Cmatrix=[0                  0                  0| 0                  0                  0| 0                  0                  0|]
New Line.n_campus_b_ss_50_sc Phases=3 bus1=n_campus_b.1.2.3 bus2=ss_50_sc.1.2.3 Units=km Length=0.920496 Rmatrix=[0.0710846635835    0.0120296658647    0.0120296658647| 0.0120296658647    0.0710846635835    0.0120296658647| 0.0120296658647    0.0120296658647    0.0710846635835|] Xmatrix=[ 0.138888664377    0.0503056653274    0.0503056653274| 0.0503056653274     0.138888664377    0.0503056653274| 0.0503056653274    0.0503056653274     0.138888664377|] Cmatrix=[0                  0                  0| 0                  0                  0| 0                  0                  0|]
New Line.n_campus_b_ss_104_wc Phases=3 bus1=n_campus_b.1.2.3 bus2=ss_104_wc.1.2.3 Units=km Length=0.67056 Rmatrix=[ 0.071084663298    0.0120296657892    0.0120296657892| 0.0120296657892     0.071084663298    0.0120296657892| 0.0120296657892    0.0120296657892     0.071084663298|] Xmatrix=[ 0.138888664164    0.0503056652023    0.0503056652023| 0.0503056652023     0.138888664164    0.0503056652023| 0.0503056652023    0.0503056652023     0.138888664164|] Cmatrix=[0                  0                  0| 0                  0                  0| 0                  0                  0|]
New Line.n_campus_b_ss_92_erc Phases=3 bus1=n_campus_b.1.2.3 bus2=ss_92_erc.1.2.3 Units=km Length=0.915924 Rmatrix=[0.0710846641726    0.0120296660201    0.0120296660201| 0.0120296660201    0.0710846641726    0.0120296660201| 0.0120296660201    0.0120296660201    0.0710846641726|] Xmatrix=[ 0.138888664815    0.0503056655852    0.0503056655852| 0.0503056655852     0.138888664815    0.0503056655852| 0.0503056655852    0.0503056655852     0.138888664815|] Cmatrix=[0                  0                  0| 0                  0                  0| 0                  0                  0|]
New Line.n_campus_b_ss_57_erc Phases=3 bus1=n_campus_b.1.2.3 bus2=ss_57_erc.1.2.3 Units=km Length=1.34112 Rmatrix=[0.0710846601208    0.0120296649688    0.0120296649688| 0.0120296649688    0.0710846601208    0.0120296649688| 0.0120296649688    0.0120296649688    0.0710846601208|] Xmatrix=[ 0.138888661807    0.0503056638273    0.0503056638273| 0.0503056638273     0.138888661807    0.0503056638274| 0.0503056638273    0.0503056638274     0.138888661807|] Cmatrix=[0                  0                  0| 0                  0                  0| 0                  0                  0|]
New Line.n_campus_c_e_7_12_2_337 Phases=3 bus1=n_campus_c.1.2.3 bus2=e_7_12_2_337.1.2.3 Units=km Length=0.309372 Rmatrix=[0.0710846664058     0.012029666599     0.012029666599|  0.012029666599    0.0710846664058     0.012029666599|  0.012029666599     0.012029666599    0.0710846664058|] Xmatrix=[ 0.138888666473    0.0503056665535    0.0503056665535| 0.0503056665535     0.138888666473    0.0503056665535| 0.0503056665535    0.0503056665535     0.138888666473|] Cmatrix=[0                  0                  0| 0                  0                  0| 0                  0                  0|]
New Line.bus_nc17_ebu2_lab_pri Phases=3 bus1=bus_nc17.1.2.3 bus2=ebu2_lab_pri.1.2.3 Units=km Length=0.333756 Rmatrix=[ 0.071084666375    0.0120296665911    0.0120296665911| 0.0120296665911    0.0710846663754    0.0120296665911| 0.0120296665911    0.0120296665911    0.0710846663752|] Xmatrix=[  0.13888866645    0.0503056665402    0.0503056665402| 0.0503056665402      0.13888866645    0.0503056665402| 0.0503056665402    0.0503056665402      0.13888866645|] Cmatrix=[0                  0                  0| 0                  0                  0| 0                  0                  0|]
New Line.bus_nc17_ss_93_erc Phases=3 bus1=bus_nc17.1.2.3 bus2=ss_93_erc.1.2.3 Units=km Length=0.915924 Rmatrix=[0.0710846634777    0.0120296658373    0.0120296658373| 0.0120296658373    0.0710846634779    0.0120296658373| 0.0120296658373    0.0120296658373    0.0710846634778|] Xmatrix=[ 0.138888664299    0.0503056652816    0.0503056652816| 0.0503056652816     0.138888664298    0.0503056652816| 0.0503056652816    0.0503056652816     0.138888664298|] Cmatrix=[0                  0                  0| 0                  0                  0| 0                  0                  0|]
New Line.n_campus_a_bus_nc17 Phases=3 bus1=n_campus_a.1.2.3 bus2=bus_nc17.1.2.3 Units=km Length=0.0009144 Rmatrix=[0.0710846666664    0.0120296666667    0.0120296666667| 0.0120296666667    0.0710846666667    0.0120296666667| 0.0120296666667    0.0120296666667    0.0710846666667|] Xmatrix=[ 0.138888666667    0.0503056666666    0.0503056666666| 0.0503056666666     0.138888666666    0.0503056666666| 0.0503056666666    0.0503056666666     0.138888666666|] Cmatrix=[0                  0                  0| 0                  0                  0| 0                  0                  0|]
New Line.n_campus_a_serf_bldg_pri Phases=3 bus1=n_campus_a.1.2.3 bus2=serf_bldg_pri.1.2.3 Units=km Length=0.505968 Rmatrix=[0.0710846643742    0.0120296660707    0.0120296660707| 0.0120296660707    0.0710846643744    0.0120296660707| 0.0120296660707    0.0120296660707    0.0710846643744|] Xmatrix=[ 0.138888664964    0.0503056656712    0.0503056656712| 0.0503056656712     0.138888664964    0.0503056656712| 0.0503056656712    0.0503056656712     0.138888664964|] Cmatrix=[0                  0                  0| 0                  0                  0| 0                  0                  0|]
New Line.n_campus_a_e_2_9_15 Phases=3 bus1=n_campus_a.1.2.3 bus2=e_2_9_15.1.2.3 Units=km Length=1.66878 Rmatrix=[0.0710846571217    0.0120296641908    0.0120296641906| 0.0120296641908    0.0710846571212    0.0120296641919| 0.0120296641906    0.0120296641919    0.0710846571233|] Xmatrix=[ 0.138888659589    0.0503056625271    0.0503056625276| 0.0503056625271     0.138888659571    0.0503056625268| 0.0503056625276    0.0503056625268     0.138888659604|] Cmatrix=[0                  0                  0| 0                  0                  0| 0                  0                  0|]
New Line.n_campus_a_e_2_9_12 Phases=3 bus1=n_campus_a.1.2.3 bus2=e_2_9_12.1.2.3 Units=km Length=1.56972 Rmatrix=[0.0710846592749      0.01202966475    0.0120296647496|   0.01202966475    0.0710846592668    0.0120296647495| 0.0120296647496    0.0120296647495    0.0710846592721|] Xmatrix=[ 0.138888661169    0.0503056634588    0.0503056634584| 0.0503056634588     0.138888661159    0.0503056634601| 0.0503056634584    0.0503056634601     0.138888661177|] Cmatrix=[0                  0                  0| 0                  0                  0| 0                  0                  0|]
New Line.revelle_2_sio_1_sub Phases=3 bus1=revelle_2.1.2.3 bus2=sio_1_sub.1.2.3 Units=km Length=2.054352 Rmatrix=[0.0710846507091    0.0120296625289    0.0120296625289| 0.0120296625289    0.0710846507091    0.0120296625289| 0.0120296625289    0.0120296625289    0.0710846507091|] Xmatrix=[ 0.138888654821    0.0503056597461    0.0503056597461| 0.0503056597461     0.138888654821    0.0503056597461| 0.0503056597461    0.0503056597461     0.138888654821|] Cmatrix=[0                  0                  0| 0                  0                  0| 0                  0                  0|]
New Line.revelle_2_ss_30_rc Phases=3 bus1=revelle_2.1.2.3 bus2=ss_30_rc.1.2.3 Units=km Length=0.291084 Rmatrix=[0.0710846664519     0.012029666611     0.012029666611|  0.012029666611    0.0710846664519     0.012029666611|  0.012029666611     0.012029666611    0.0710846664519|] Xmatrix=[ 0.138888666507    0.0503056665735    0.0503056665735| 0.0503056665735     0.138888666507    0.0503056665735| 0.0503056665735    0.0503056665735     0.138888666507|] Cmatrix=[0                  0                  0| 0                  0                  0| 0                  0                  0|]
New Line.revelle_2_psb Phases=3 bus1=revelle_2.1.2.3 bus2=psb.1.2.3 Units=km Length=0.094488 Rmatrix=[ 1.15105354778     0.703150322218     0.703150322225| 0.703150322218      1.15105354776     0.703150322211| 0.703150322225     0.703150322211      1.15105354774|] Xmatrix=[ 1.26271419338     0.619973548251     0.619973548257| 0.619973548251      1.26271419331     0.619973548246| 0.619973548257     0.619973548246       1.2627141933|] Cmatrix=[0                  0                  0| 0                  0                  0| 0                  0                  0|]
New Line.revelle_1_sio_2_sub Phases=3 bus1=revelle_1.1.2.3 bus2=sio_2_sub.1.2.3 Units=km Length=2.054352 Rmatrix=[0.0710846527902    0.0120296630686    0.0120296630686| 0.0120296630686    0.0710846527902    0.0120296630686| 0.0120296630686    0.0120296630686    0.0710846527902|] Xmatrix=[ 0.138888656366    0.0503056606487    0.0503056606487| 0.0503056606487     0.138888656366    0.0503056606487| 0.0503056606487    0.0503056606487     0.138888656366|] Cmatrix=[0                  0                  0| 0                  0                  0| 0                  0                  0|]
New Line.revelle_1_ss_31_rc Phases=3 bus1=revelle_1.1.2.3 bus2=ss_31_rc.1.2.3 Units=km Length=0.291084 Rmatrix=[0.0710846664519     0.012029666611     0.012029666611|  0.012029666611    0.0710846664519     0.012029666611|  0.012029666611     0.012029666611    0.0710846664519|] Xmatrix=[ 0.138888666507    0.0503056665735    0.0503056665735| 0.0503056665735     0.138888666507    0.0503056665735| 0.0503056665735    0.0503056665735     0.138888666507|] Cmatrix=[0                  0                  0| 0                  0                  0| 0                  0                  0|]
New Line.revelle_1_psa Phases=3 bus1=revelle_1.1.2.3 bus2=psa.1.2.3 Units=km Length=0.094488 Rmatrix=[ 1.15105354771     0.703150322174     0.703150322171| 0.703150322174      1.15105354773     0.703150322186| 0.703150322171     0.703150322186      1.15105354771|] Xmatrix=[ 1.26271419329     0.619973548222      0.61997354822| 0.619973548222      1.26271419328     0.619973548236|  0.61997354822     0.619973548236      1.26271419327|] Cmatrix=[0                  0                  0| 0                  0                  0| 0                  0                  0|]
New Line.sio_1_sub_ss_64_sio Phases=3 bus1=sio_1_sub.1.2.3 bus2=ss_64_sio.1.2.3 Units=km Length=0.621792 Rmatrix=[ 0.110867102055    0.0183381958661    0.0183381958661| 0.0183381958661     0.110867102055    0.0183381958661| 0.0183381958661    0.0183381958661     0.110867102055|] Xmatrix=[ 0.143254551115    0.0503053698385    0.0503053698385| 0.0503053698385     0.143254551115    0.0503053698385| 0.0503053698385    0.0503053698385     0.143254551115|] Cmatrix=[0                  0                  0| 0                  0                  0| 0                  0                  0|]
New Line.e_2_6_12_ss_83_mc_12 Phases=3 bus1=e_2_6_12.1.2.3 bus2=ss_83_mc_12.1.2.3 Units=km Length=0.330708 Rmatrix=[0.0710846661844    0.0120296665416    0.0120296665416| 0.0120296665416    0.0710846661844    0.0120296665416| 0.0120296665416    0.0120296665416    0.0710846661844|] Xmatrix=[ 0.138888666309    0.0503056664575    0.0503056664575| 0.0503056664575     0.138888666309    0.0503056664575| 0.0503056664575    0.0503056664575     0.138888666309|] Cmatrix=[0                  0                  0| 0                  0                  0| 0                  0                  0|]
New Line.e_2_6_12_sb_b2a Phases=3 bus1=e_2_6_12.1.2.3 bus2=sb_b2a.1.2.3 Units=km Length=0.2286 Rmatrix=[0.0710846664849     0.012029666619     0.012029666619|  0.012029666619    0.0710846664849     0.012029666619|  0.012029666619     0.012029666619    0.0710846664849|] Xmatrix=[ 0.138888666531    0.0503056665874    0.0503056665874| 0.0503056665874     0.138888666531    0.0503056665874| 0.0503056665874    0.0503056665874     0.138888666531|] Cmatrix=[0                  0                  0| 0                  0                  0| 0                  0                  0|]
New Line.e_2_9_12_bldg_3b_12kv Phases=3 bus1=e_2_9_12.1.2.3 bus2=bldg_3b_12kv.1.2.3 Units=km Length=0.04572 Rmatrix=[0.0710846666667    0.0120296666667    0.0120296666667| 0.0120296666667    0.0710846666667    0.0120296666667| 0.0120296666667    0.0120296666667    0.0710846666667|] Xmatrix=[ 0.138888666667    0.0503056666667    0.0503056666667| 0.0503056666667     0.138888666667    0.0503056666667| 0.0503056666667    0.0503056666667     0.138888666667|] Cmatrix=[0                  0                  0| 0                  0                  0| 0                  0                  0|]
New Line.e_2_9_12_e_2_6_12 Phases=3 bus1=e_2_9_12.1.2.3 bus2=e_2_6_12.1.2.3 Units=km Length=0.598932 Rmatrix=[0.0710846657622    0.0120296664322    0.0120296664322| 0.0120296664322    0.0710846657622    0.0120296664322| 0.0120296664322    0.0120296664322    0.0710846657622|] Xmatrix=[ 0.138888665995    0.0503056662745    0.0503056662745| 0.0503056662745     0.138888665995    0.0503056662745| 0.0503056662745    0.0503056662745     0.138888665995|] Cmatrix=[0                  0                  0| 0                  0                  0| 0                  0                  0|]
New Line.e_2_9_15_bldg_3b_15 Phases=3 bus1=e_2_9_15.1.2.3 bus2=bldg_3b_15.1.2.3 Units=km Length=0.04572 Rmatrix=[0.0710846666667    0.0120296666667    0.0120296666667| 0.0120296666667    0.0710846666667    0.0120296666667| 0.0120296666667    0.0120296666667    0.0710846666667|] Xmatrix=[ 0.138888666667    0.0503056666667    0.0503056666667| 0.0503056666667     0.138888666667    0.0503056666667| 0.0503056666667    0.0503056666667     0.138888666667|] Cmatrix=[0                  0                  0| 0                  0                  0| 0                  0                  0|]
New Line.e_2_9_15_ss_83_mc_15 Phases=3 bus1=e_2_9_15.1.2.3 bus2=ss_83_mc_15.1.2.3 Units=km Length=0.92964 Rmatrix=[0.0710846626753    0.0120296656313    0.0120296656313| 0.0120296656313    0.0710846626753    0.0120296656313| 0.0120296656313    0.0120296656313    0.0710846626753|] Xmatrix=[ 0.138888663704    0.0503056649353    0.0503056649353| 0.0503056649353     0.138888663704    0.0503056649353| 0.0503056649353    0.0503056649353     0.138888663704|] Cmatrix=[0                  0                  0| 0                  0                  0| 0                  0                  0|]
New Line.east_campus_2_revelle_2 Phases=3 bus1=east_campus_2.1.2.3 bus2=revelle_2.1.2.3 Units=km Length=2.36982 Rmatrix=[ 0.071084649839    0.0120296623044    0.0120296623044| 0.0120296623044    0.0710846498391    0.0120296623044| 0.0120296623044    0.0120296623044     0.071084649839|] Xmatrix=[ 0.138888654176    0.0503056593697    0.0503056593697| 0.0503056593697     0.138888654176    0.0503056593697| 0.0503056593697    0.0503056593697     0.138888654176|] Cmatrix=[0                  0                  0| 0                  0                  0| 0                  0                  0|]
New Line.east_campus_2_mcss_mb Phases=3 bus1=east_campus_2.1.2.3 bus2=mcss_mb.1.2.3 Units=km Length=0.4105656 Rmatrix=[ 0.0513999996897   0.00874899992379   0.00874899992379| 0.00874899992379    0.0513999996897   0.00874899992379| 0.00874899992379   0.00874899992379    0.0513999996897|] Xmatrix=[  0.12576733301    0.0437463331743    0.0437463331743| 0.0437463331743      0.12576733301    0.0437463331743| 0.0437463331743    0.0437463331743      0.12576733301|] Cmatrix=[0                  0                  0| 0                  0                  0| 0                  0                  0|]
New Line.east_campus_2_n_campus_b Phases=3 bus1=east_campus_2.1.2.3 bus2=n_campus_b.1.2.3 Units=km Length=1.152144 Rmatrix=[0.0710846627137    0.0120296656419    0.0120296656419| 0.0120296656419    0.0710846627137    0.0120296656419| 0.0120296656419    0.0120296656419    0.0710846627137|] Xmatrix=[ 0.138888663732    0.0503056649526    0.0503056649526| 0.0503056649526     0.138888663732    0.0503056649526| 0.0503056649526    0.0503056649526     0.138888663732|] Cmatrix=[0                  0                  0| 0                  0                  0| 0                  0                  0|]
New Line.east_campus_3_mcss_mc Phases=3 bus1=east_campus_3.1.2.3 bus2=mcss_mc.1.2.3 Units=km Length=0.4041648 Rmatrix=[ 0.0513999997033   0.00874899992715   0.00874899992715| 0.00874899992715    0.0513999997033   0.00874899992715| 0.00874899992715   0.00874899992715    0.0513999997033|] Xmatrix=[ 0.125767333024    0.0437463331813    0.0437463331813| 0.0437463331813     0.125767333024    0.0437463331813| 0.0437463331813    0.0437463331813     0.125767333024|] Cmatrix=[0                  0                  0| 0                  0                  0| 0                  0                  0|]
New Line.east_campus_3_ss_13_wc Phases=3 bus1=east_campus_3.1.2.3 bus2=ss_13_wc.1.2.3 Units=km Length=1.17348 Rmatrix=[0.0710846624682    0.0120296655783    0.0120296655783| 0.0120296655783    0.0710846624682    0.0120296655783| 0.0120296655783    0.0120296655783    0.0710846624682|] Xmatrix=[  0.13888866355    0.0503056648461    0.0503056648461| 0.0503056648461      0.13888866355    0.0503056648461| 0.0503056648461    0.0503056648461      0.13888866355|] Cmatrix=[0                  0                  0| 0                  0                  0| 0                  0                  0|]
New Line.east_campus_3_n_campus_c Phases=3 bus1=east_campus_3.1.2.3 bus2=n_campus_c.1.2.3 Units=km Length=1.146048 Rmatrix=[0.0710846627735    0.0120296656574    0.0120296656574| 0.0120296656574    0.0710846627735    0.0120296656574| 0.0120296656574    0.0120296656574    0.0710846627735|] Xmatrix=[ 0.138888663777    0.0503056649785    0.0503056649785| 0.0503056649785     0.138888663777    0.0503056649785| 0.0503056649785    0.0503056649785     0.138888663777|] Cmatrix=[0                  0                  0| 0                  0                  0| 0                  0                  0|]
New Line.e_7_12_2_337_ss_82_wc Phases=3 bus1=e_7_12_2_337.1.2.3 bus2=ss_82_wc.1.2.3 Units=km Length=0.050292 Rmatrix=[0.0710846666667    0.0120296666667    0.0120296666667| 0.0120296666667    0.0710846666667    0.0120296666667| 0.0120296666667    0.0120296666667    0.0710846666667|] Xmatrix=[ 0.138888666667    0.0503056666667    0.0503056666667| 0.0503056666667     0.138888666667    0.0503056666667| 0.0503056666667    0.0503056666667     0.138888666667|] Cmatrix=[0                  0                  0| 0                  0                  0| 0                  0                  0|]
New Line.e_7_12_2_337_ss_91_wc Phases=3 bus1=e_7_12_2_337.1.2.3 bus2=ss_91_wc.1.2.3 Units=km Length=0.079248 Rmatrix=[0.0710846666667    0.0120296666667    0.0120296666667| 0.0120296666667    0.0710846666667    0.0120296666667| 0.0120296666667    0.0120296666667    0.0710846666667|] Xmatrix=[ 0.138888666667    0.0503056666667    0.0503056666667| 0.0503056666667     0.138888666667    0.0503056666667| 0.0503056666667    0.0503056666667     0.138888666667|] Cmatrix=[0                  0                  0| 0                  0                  0| 0                  0                  0|]
New Line.t_204_sec_east_campus_1 Phases=3 bus1=t_204_sec.1.2.3 bus2=east_campus_1.1.2.3 Units=km Length=0.048768 Rmatrix=[0.0710846666667    0.0120296666667    0.0120296666667| 0.0120296666667    0.0710846666667    0.0120296666667| 0.0120296666667    0.0120296666667    0.0710846666667|] Xmatrix=[ 0.138888666667    0.0503056666667    0.0503056666667| 0.0503056666667     0.138888666667    0.0503056666667| 0.0503056666667    0.0503056666667     0.138888666667|] Cmatrix=[0                  0                  0| 0                  0                  0| 0                  0                  0|]
New Line.t_205_sec_east_campus_2 Phases=3 bus1=t_205_sec.1.2.3 bus2=east_campus_2.1.2.3 Units=km Length=0.067056 Rmatrix=[0.0710846666667    0.0120296666667    0.0120296666667| 0.0120296666667    0.0710846666667    0.0120296666667| 0.0120296666667    0.0120296666667    0.0710846666667|] Xmatrix=[ 0.138888666667    0.0503056666667    0.0503056666667| 0.0503056666667     0.138888666667    0.0503056666667| 0.0503056666667    0.0503056666667     0.138888666667|] Cmatrix=[0                  0                  0| 0                  0                  0| 0                  0                  0|]
New Line.t_277_sec_east_campus_3 Phases=3 bus1=t_277_sec.1.2.3 bus2=east_campus_3.1.2.3 Units=km Length=0.085344 Rmatrix=[0.0710846666667    0.0120296666667    0.0120296666667| 0.0120296666667    0.0710846666667    0.0120296666667| 0.0120296666667    0.0120296666667    0.0710846666667|] Xmatrix=[ 0.138888666667    0.0503056666667    0.0503056666667| 0.0503056666667     0.138888666667    0.0503056666667| 0.0503056666667    0.0503056666667     0.138888666667|] Cmatrix=[0                  0                  0| 0                  0                  0| 0                  0                  0|]
New Line.psa_psa_line_tg_1 Phases=3 bus1=psa.1.2.3 bus2=psa_line_tg_1.1.2.3 Units=km Length=0.0003048 Rmatrix=[0.0710846666667    0.0120296666667    0.0120296666667| 0.0120296666667    0.0710846666666    0.0120296666667| 0.0120296666667    0.0120296666667    0.0710846666668|] Xmatrix=[ 0.138888666667    0.0503056666667    0.0503056666667| 0.0503056666667     0.138888666666    0.0503056666668| 0.0503056666667    0.0503056666668     0.138888666667|] Cmatrix=[0                  0                  0| 0                  0                  0| 0                  0                  0|]
New Transformer.T_204 Windings=2 Buses=[SDG&E_69KV T_204_SEC] Conns=[delta wye] kVs=[69        12.47] kVAs=[16800  28000] %Rs=[0.36        0.36] XHL=7.55 %Noloadloss=0 %imag=0 MaxTap=1.05 MinTap=0.95 NumTaps=16
New Transformer.T_205 Windings=2 Buses=[SDG&E_69KV T_205_SEC] Conns=[delta wye] kVs=[69        12.47] kVAs=[16800  28000] %Rs=[0.37        0.37] XHL=7.61 %Noloadloss=0 %imag=0 sub=y MaxTap=1.05 MinTap=0.95 NumTaps=16
New Transformer.T_277 Windings=2 Buses=[SDG&E_69KV T_277_SEC] Conns=[delta wye] kVs=[69        12.47] kVAs=[16800  28000] %Rs=[0.36        0.36] XHL=7.43 %Noloadloss=0 %imag=0 MaxTap=1.05 MinTap=0.95 NumTaps=16
New Regcontrol.FEEDER_REG204 transformer=T_204 winding=2 vreg=126 band=2 ptratio=60
New Regcontrol.FEEDER_REG205 transformer=T_205 winding=2 vreg=126 band=2 ptratio=60
New Regcontrol.FEEDER_REG277 transformer=T_277 winding=2 vreg=126 band=2 ptratio=60
New Load.Load_MCSS_MB.1_model_1 Phases=1 bus1=MCSS_MB.1 Kv=7.2 Kw=666.74 Model=1 Kvar=500.055
New Load.Load_MCSS_MB.2_model_1 Phases=1 bus1=MCSS_MB.2 Kv=7.2 Kw=666.74 Model=1 Kvar=500.055
New Load.Load_MCSS_MB.3_model_1 Phases=1 bus1=MCSS_MB.3 Kv=7.2 Kw=666.74 Model=1 Kvar=500.055
New Load.Load_MCSS_MA.1_model_1 Phases=1 bus1=MCSS_MA.1 Kv=7.2 Kw=734.89 Model=1 Kvar=500.055
New Load.Load_MCSS_MA.2_model_1 Phases=1 bus1=MCSS_MA.2 Kv=7.2 Kw=734.89 Model=1 Kvar=500.055
New Load.Load_MCSS_MA.3_model_1 Phases=1 bus1=MCSS_MA.3 Kv=7.2 Kw=734.89 Model=1 Kvar=500.055
New Load.Load_SS_51_EC.1_model_1 Phases=1 bus1=SS_51_EC.1 Kv=7.2 Kw=297.8183 Model=1 Kvar=223.3637
New Load.Load_SS_51_EC.2_model_1 Phases=1 bus1=SS_51_EC.2 Kv=7.2 Kw=297.8183 Model=1 Kvar=223.3637
New Load.Load_SS_51_EC.3_model_1 Phases=1 bus1=SS_51_EC.3 Kv=7.2 Kw=297.8183 Model=1 Kvar=223.3637
New Load.Load_MCSS_MC.1_model_1 Phases=1 bus1=MCSS_MC.1 Kv=7.2 Kw=181.8997 Model=1 Kvar=136.4248
New Load.Load_MCSS_MC.2_model_1 Phases=1 bus1=MCSS_MC.2 Kv=7.2 Kw=181.8997 Model=1 Kvar=136.4248
New Load.Load_MCSS_MC.3_model_1 Phases=1 bus1=MCSS_MC.3 Kv=7.2 Kw=181.8997 Model=1 Kvar=136.4248
New Load.Load_EAST_CAMPUS_1.1_model_1 Phases=1 bus1=EAST_CAMPUS_1.1 Kv=7.2 Kw=135.1082 Model=1 Kvar=101.3088
New Load.Load_EAST_CAMPUS_1.2_model_1 Phases=1 bus1=EAST_CAMPUS_1.2 Kv=7.2 Kw=135.1082 Model=1 Kvar=101.3088
New Load.Load_EAST_CAMPUS_1.3_model_1 Phases=1 bus1=EAST_CAMPUS_1.3 Kv=7.2 Kw=135.1082 Model=1 Kvar=101.3088
New Load.Load_PSB.1_model_1 Phases=1 bus1=PSB.1 Kv=7.2 Kw=549.7184 Model=1 Kvar=412.2891
New Load.Load_PSB.2_model_1 Phases=1 bus1=PSB.2 Kv=7.2 Kw=549.7184 Model=1 Kvar=412.2891
New Load.Load_PSB.3_model_1 Phases=1 bus1=PSB.3 Kv=7.2 Kw=549.7184 Model=1 Kvar=412.2891
New Load.Load_SS_64_SIO.1_model_1 Phases=1 bus1=SS_64_SIO.1 Kv=7.2 Kw=393.5082 Model=1 Kvar=252.4971
New Load.Load_SS_64_SIO.2_model_1 Phases=1 bus1=SS_64_SIO.2 Kv=7.2 Kw=393.5082 Model=1 Kvar=252.4971
New Load.Load_SS_64_SIO.3_model_1 Phases=1 bus1=SS_64_SIO.3 Kv=7.2 Kw=393.5082 Model=1 Kvar=252.4971
New Load.Load_BLDG_3B_12KV.1_model_1 Phases=1 bus1=BLDG_3B_12KV.1 Kv=7.2 Kw=282.696 Model=1 Kvar=212.022
New Load.Load_BLDG_3B_12KV.2_model_1 Phases=1 bus1=BLDG_3B_12KV.2 Kv=7.2 Kw=282.696 Model=1 Kvar=212.022
New Load.Load_BLDG_3B_12KV.3_model_1 Phases=1 bus1=BLDG_3B_12KV.3 Kv=7.2 Kw=282.696 Model=1 Kvar=212.022
New Load.Load_BLDG_3B_15.1_model_1 Phases=1 bus1=BLDG_3B_15.1 Kv=7.2 Kw=105.674 Model=1 Kvar=79.2555
New Load.Load_BLDG_3B_15.2_model_1 Phases=1 bus1=BLDG_3B_15.2 Kv=7.2 Kw=105.674 Model=1 Kvar=79.2555
New Load.Load_BLDG_3B_15.3_model_1 Phases=1 bus1=BLDG_3B_15.3 Kv=7.2 Kw=105.674 Model=1 Kvar=79.2555
New Load.Load_N_CAMPUS_B.1_model_1 Phases=1 bus1=N_CAMPUS_B.1 Kv=7.2 Kw=661.2072 Model=1 Kvar=492.9014
New Load.Load_N_CAMPUS_B.2_model_1 Phases=1 bus1=N_CAMPUS_B.2 Kv=7.2 Kw=661.2072 Model=1 Kvar=492.9014
New Load.Load_N_CAMPUS_B.3_model_1 Phases=1 bus1=N_CAMPUS_B.3 Kv=7.2 Kw=661.2072 Model=1 Kvar=492.9014
New Load.Load_N_CAMPUS_C.1_model_1 Phases=1 bus1=N_CAMPUS_C.1 Kv=7.2 Kw=131.348 Model=1 Kvar=98.511
New Load.Load_N_CAMPUS_C.2_model_1 Phases=1 bus1=N_CAMPUS_C.2 Kv=7.2 Kw=131.348 Model=1 Kvar=98.511
New Load.Load_N_CAMPUS_C.3_model_1 Phases=1 bus1=N_CAMPUS_C.3 Kv=7.2 Kw=131.348 Model=1 Kvar=98.511
New Load.Load_BUS_NC17.1_model_1 Phases=1 bus1=BUS_NC17.1 Kv=7.2 Kw=159.4545 Model=1 Kvar=119.5909
New Load.Load_BUS_NC17.2_model_1 Phases=1 bus1=BUS_NC17.2 Kv=7.2 Kw=159.4545 Model=1 Kvar=119.5909
New Load.Load_BUS_NC17.3_model_1 Phases=1 bus1=BUS_NC17.3 Kv=7.2 Kw=159.4545 Model=1 Kvar=119.5909
New Load.Load_N_CAMPUS_A.1_model_1 Phases=1 bus1=N_CAMPUS_A.1 Kv=7.2 Kw=458.5038 Model=1 Kvar=343.8778
New Load.Load_N_CAMPUS_A.2_model_1 Phases=1 bus1=N_CAMPUS_A.2 Kv=7.2 Kw=458.5037 Model=1 Kvar=343.8778
New Load.Load_N_CAMPUS_A.3_model_1 Phases=1 bus1=N_CAMPUS_A.3 Kv=7.2 Kw=458.5038 Model=1 Kvar=343.8778
New Load.Load_SS_50_SC.1_model_1 Phases=1 bus1=SS_50_SC.1 Kv=7.2 Kw=188.7282 Model=1 Kvar=126.2202
New Load.Load_SS_50_SC.2_model_1 Phases=1 bus1=SS_50_SC.2 Kv=7.2 Kw=188.7282 Model=1 Kvar=126.2202
New Load.Load_SS_50_SC.3_model_1 Phases=1 bus1=SS_50_SC.3 Kv=7.2 Kw=188.7282 Model=1 Kvar=126.2202
New Load.Load_REVELLE_2.1_model_1 Phases=1 bus1=REVELLE_2.1 Kv=7.2 Kw=1362.2251 Model=1 Kvar=1018.0688
New Load.Load_REVELLE_2.2_model_1 Phases=1 bus1=REVELLE_2.2 Kv=7.2 Kw=1362.2251 Model=1 Kvar=1018.0689
New Load.Load_REVELLE_2.3_model_1 Phases=1 bus1=REVELLE_2.3 Kv=7.2 Kw=1362.2251 Model=1 Kvar=1018.0688
New Load.Load_REVELLE_1.1_model_1 Phases=1 bus1=REVELLE_1.1 Kv=7.2 Kw=1344.5919 Model=1 Kvar=974.8789
New Load.Load_REVELLE_1.2_model_1 Phases=1 bus1=REVELLE_1.2 Kv=7.2 Kw=1344.5919 Model=1 Kvar=974.8789
New Load.Load_REVELLE_1.3_model_1 Phases=1 bus1=REVELLE_1.3 Kv=7.2 Kw=1344.5919 Model=1 Kvar=974.8789
New Load.Load_SIO_2_SUB.1_model_1 Phases=1 bus1=SIO_2_SUB.1 Kv=7.2 Kw=541.4335 Model=1 Kvar=404.2751
New Load.Load_SIO_2_SUB.2_model_1 Phases=1 bus1=SIO_2_SUB.2 Kv=7.2 Kw=541.4335 Model=1 Kvar=404.2751
New Load.Load_SIO_2_SUB.3_model_1 Phases=1 bus1=SIO_2_SUB.3 Kv=7.2 Kw=541.4335 Model=1 Kvar=404.2751
New Load.Load_SIO_1_SUB.1_model_1 Phases=1 bus1=SIO_1_SUB.1 Kv=7.2 Kw=629.0974 Model=1 Kvar=502.6321
New Load.Load_SIO_1_SUB.2_model_1 Phases=1 bus1=SIO_1_SUB.2 Kv=7.2 Kw=629.0974 Model=1 Kvar=502.6321
New Load.Load_SIO_1_SUB.3_model_1 Phases=1 bus1=SIO_1_SUB.3 Kv=7.2 Kw=629.0974 Model=1 Kvar=502.6321
New Load.Load_SS_83_MC_12.1_model_1 Phases=1 bus1=SS_83_MC_12.1 Kv=7.2 Kw=65.674 Model=1 Kvar=49.2555
New Load.Load_SS_83_MC_12.2_model_1 Phases=1 bus1=SS_83_MC_12.2 Kv=7.2 Kw=65.674 Model=1 Kvar=49.2555
New Load.Load_SS_83_MC_12.3_model_1 Phases=1 bus1=SS_83_MC_12.3 Kv=7.2 Kw=65.674 Model=1 Kvar=49.2555
New Load.Load_SS_83_MC_15.1_model_1 Phases=1 bus1=SS_83_MC_15.1 Kv=7.2 Kw=251.7333 Model=1 Kvar=187
New Load.Load_SS_83_MC_15.2_model_1 Phases=1 bus1=SS_83_MC_15.2 Kv=7.2 Kw=251.7333 Model=1 Kvar=187
New Load.Load_SS_83_MC_15.3_model_1 Phases=1 bus1=SS_83_MC_15.3 Kv=7.2 Kw=251.7333 Model=1 Kvar=187
New Load.Load_E_2_6_12.1_model_1 Phases=1 bus1=E_2_6_12.1 Kv=7.2 Kw=98.511 Model=1 Kvar=73.8832
New Load.Load_E_2_6_12.2_model_1 Phases=1 bus1=E_2_6_12.2 Kv=7.2 Kw=98.511 Model=1 Kvar=73.8832
New Load.Load_E_2_6_12.3_model_1 Phases=1 bus1=E_2_6_12.3 Kv=7.2 Kw=98.511 Model=1 Kvar=73.8832
New Load.Load_E_2_9_15.1_model_1 Phases=1 bus1=E_2_9_15.1 Kv=7.2 Kw=86.0443 Model=1 Kvar=64.5332
New Load.Load_E_2_9_15.2_model_1 Phases=1 bus1=E_2_9_15.2 Kv=7.2 Kw=86.0443 Model=1 Kvar=64.5332
New Load.Load_E_2_9_15.3_model_1 Phases=1 bus1=E_2_9_15.3 Kv=7.2 Kw=86.0443 Model=1 Kvar=64.5332
New Load.Load_SS_15_ERC.1_model_1 Phases=1 bus1=SS_15_ERC.1 Kv=7.2 Kw=1042.2546 Model=1 Kvar=781.691
New Load.Load_SS_15_ERC.2_model_1 Phases=1 bus1=SS_15_ERC.2 Kv=7.2 Kw=1042.2546 Model=1 Kvar=781.691
New Load.Load_SS_15_ERC.3_model_1 Phases=1 bus1=SS_15_ERC.3 Kv=7.2 Kw=1042.2546 Model=1 Kvar=781.691
New Load.Load_SS_13_WC.1_model_1 Phases=1 bus1=SS_13_WC.1 Kv=7.2 Kw=292.696 Model=1 Kvar=219.522
New Load.Load_SS_13_WC.2_model_1 Phases=1 bus1=SS_13_WC.2 Kv=7.2 Kw=292.696 Model=1 Kvar=219.522
New Load.Load_SS_13_WC.3_model_1 Phases=1 bus1=SS_13_WC.3 Kv=7.2 Kw=292.696 Model=1 Kvar=219.522
New Load.Load_EBU2_LAB_PRI.1_model_1 Phases=1 bus1=EBU2_LAB_PRI.1 Kv=7.2 Kw=129.2488 Model=1 Kvar=96.9366
New Load.Load_EBU2_LAB_PRI.2_model_1 Phases=1 bus1=EBU2_LAB_PRI.2 Kv=7.2 Kw=129.2488 Model=1 Kvar=96.9366
New Load.Load_EBU2_LAB_PRI.3_model_1 Phases=1 bus1=EBU2_LAB_PRI.3 Kv=7.2 Kw=129.2488 Model=1 Kvar=96.9366
New Load.Load_PSA.1_model_1 Phases=1 bus1=PSA.1 Kv=7.2 Kw=407.7273 Model=1 Kvar=295.533
New Load.Load_PSA.2_model_1 Phases=1 bus1=PSA.2 Kv=7.2 Kw=407.7273 Model=1 Kvar=295.533
New Load.Load_PSA.3_model_1 Phases=1 bus1=PSA.3 Kv=7.2 Kw=407.7273 Model=1 Kvar=295.533
New Load.Load_SS_93_ERC.1_model_1 Phases=1 bus1=SS_93_ERC.1 Kv=7.2 Kw=309.5627 Model=1 Kvar=226.772
New Load.Load_SS_93_ERC.2_model_1 Phases=1 bus1=SS_93_ERC.2 Kv=7.2 Kw=309.5627 Model=1 Kvar=226.772
New Load.Load_SS_93_ERC.3_model_1 Phases=1 bus1=SS_93_ERC.3 Kv=7.2 Kw=309.5627 Model=1 Kvar=226.772
New Load.Load_SS_31_RC.1_model_1 Phases=1 bus1=SS_31_RC.1 Kv=7.2 Kw=525.392 Model=1 Kvar=394.044
New Load.Load_SS_31_RC.2_model_1 Phases=1 bus1=SS_31_RC.2 Kv=7.2 Kw=525.392 Model=1 Kvar=394.044
New Load.Load_SS_31_RC.3_model_1 Phases=1 bus1=SS_31_RC.3 Kv=7.2 Kw=525.392 Model=1 Kvar=394.044
New Load.Load_SS_30_RC.1_model_1 Phases=1 bus1=SS_30_RC.1 Kv=7.2 Kw=722.414 Model=1 Kvar=541.8105
New Load.Load_SS_30_RC.2_model_1 Phases=1 bus1=SS_30_RC.2 Kv=7.2 Kw=722.414 Model=1 Kvar=541.8105
New Load.Load_SS_30_RC.3_model_1 Phases=1 bus1=SS_30_RC.3 Kv=7.2 Kw=722.414 Model=1 Kvar=541.8105
New Load.Load_SB_B2A.1_model_1 Phases=1 bus1=SB_B2A.1 Kv=7.2 Kw=699.577 Model=1 Kvar=524.6827
New Load.Load_SB_B2A.2_model_1 Phases=1 bus1=SB_B2A.2 Kv=7.2 Kw=699.577 Model=1 Kvar=524.6827
New Load.Load_SB_B2A.3_model_1 Phases=1 bus1=SB_B2A.3 Kv=7.2 Kw=699.577 Model=1 Kvar=524.6827
New Load.Load_SERF_BLDG_PRI.1_model_1 Phases=1 bus1=SERF_BLDG_PRI.1 Kv=7.2 Kw=428.2507 Model=1 Kvar=321.188
New Load.Load_SERF_BLDG_PRI.2_model_1 Phases=1 bus1=SERF_BLDG_PRI.2 Kv=7.2 Kw=428.2507 Model=1 Kvar=321.188
New Load.Load_SERF_BLDG_PRI.3_model_1 Phases=1 bus1=SERF_BLDG_PRI.3 Kv=7.2 Kw=428.2507 Model=1 Kvar=321.188
New Load.Load_SS_104_WC.1_model_1 Phases=1 bus1=SS_104_WC.1 Kv=7.2 Kw=618.8282 Model=1 Kvar=464.1211
New Load.Load_SS_104_WC.2_model_1 Phases=1 bus1=SS_104_WC.2 Kv=7.2 Kw=618.8282 Model=1 Kvar=464.1211
New Load.Load_SS_104_WC.3_model_1 Phases=1 bus1=SS_104_WC.3 Kv=7.2 Kw=618.8282 Model=1 Kvar=464.1211
New Load.Load_SS_20_EC.1_model_1 Phases=1 bus1=SS_20_EC.1 Kv=7.2 Kw=225.6618 Model=1 Kvar=167.4687
New Load.Load_SS_20_EC.2_model_1 Phases=1 bus1=SS_20_EC.2 Kv=7.2 Kw=225.6618 Model=1 Kvar=167.4687
New Load.Load_SS_20_EC.3_model_1 Phases=1 bus1=SS_20_EC.3 Kv=7.2 Kw=225.6618 Model=1 Kvar=167.4687
New Load.Load_SS_57_ERC.1_model_1 Phases=1 bus1=SS_57_ERC.1 Kv=7.2 Kw=218.1878 Model=1 Kvar=131.0308
New Load.Load_SS_57_ERC.2_model_1 Phases=1 bus1=SS_57_ERC.2 Kv=7.2 Kw=218.1878 Model=1 Kvar=131.0308
New Load.Load_SS_57_ERC.3_model_1 Phases=1 bus1=SS_57_ERC.3 Kv=7.2 Kw=218.1878 Model=1 Kvar=131.0308
New Load.Load_SS_82_WC.1_model_1 Phases=1 bus1=SS_82_WC.1 Kv=7.2 Kw=262.696 Model=1 Kvar=197.022
New Load.Load_SS_82_WC.2_model_1 Phases=1 bus1=SS_82_WC.2 Kv=7.2 Kw=262.696 Model=1 Kvar=197.022
New Load.Load_SS_82_WC.3_model_1 Phases=1 bus1=SS_82_WC.3 Kv=7.2 Kw=262.696 Model=1 Kvar=197.022
New Load.Load_SS_91_WC.1_model_1 Phases=1 bus1=SS_91_WC.1 Kv=7.2 Kw=197.022 Model=1 Kvar=147.7665
New Load.Load_SS_91_WC.2_model_1 Phases=1 bus1=SS_91_WC.2 Kv=7.2 Kw=197.022 Model=1 Kvar=147.7665
New Load.Load_SS_91_WC.3_model_1 Phases=1 bus1=SS_91_WC.3 Kv=7.2 Kw=197.022 Model=1 Kvar=147.7665
New Load.Load_SS_92_ERC.1_model_1 Phases=1 bus1=SS_92_ERC.1 Kv=7.2 Kw=131.348 Model=1 Kvar=98.511
New Load.Load_SS_92_ERC.2_model_1 Phases=1 bus1=SS_92_ERC.2 Kv=7.2 Kw=131.348 Model=1 Kvar=98.511
New Load.Load_SS_92_ERC.3_model_1 Phases=1 bus1=SS_92_ERC.3 Kv=7.2 Kw=131.348 Model=1 Kvar=98.511
New Generator.Gen_SG1_BUS.1_model_1 Phases=1 bus1=SG1_BUS.1 Kv=7.2 Kw=1000 Model=1 Kvar=539.7428
New Generator.Gen_SG1_BUS.2_model_1 Phases=1 bus1=SG1_BUS.2 Kv=7.2 Kw=1000 Model=1 Kvar=539.7428
New Generator.Gen_SG1_BUS.3_model_1 Phases=1 bus1=SG1_BUS.3 Kv=7.2 Kw=1000 Model=1 Kvar=539.7428
New Generator.Gen_PSB.1_model_1 Phases=1 bus1=PSB.1 Kv=7.2 Kw=5100 Model=1 Kvar=2752.6884
New Generator.Gen_PSB.2_model_1 Phases=1 bus1=PSB.2 Kv=7.2 Kw=5100 Model=1 Kvar=2752.6884
New Generator.Gen_PSB.3_model_1 Phases=1 bus1=PSB.3 Kv=7.2 Kw=5100 Model=1 Kvar=2752.6884
New Generator.Gen_SS_64_SIO.1_model_1 Phases=1 bus1=SS_64_SIO.1 Kv=7.2 Kw=16.4 Model=1 Kvar=8.8518
New Generator.Gen_SS_64_SIO.2_model_1 Phases=1 bus1=SS_64_SIO.2 Kv=7.2 Kw=16.4 Model=1 Kvar=8.8518
New Generator.Gen_SS_64_SIO.3_model_1 Phases=1 bus1=SS_64_SIO.3 Kv=7.2 Kw=16.4 Model=1 Kvar=8.8518
New Generator.Gen_SS_50_SC.1_model_1 Phases=1 bus1=SS_50_SC.1 Kv=7.2 Kw=64.9867 Model=1 Kvar=35.0761
New Generator.Gen_SS_50_SC.2_model_1 Phases=1 bus1=SS_50_SC.2 Kv=7.2 Kw=64.9867 Model=1 Kvar=35.0761
New Generator.Gen_SS_50_SC.3_model_1 Phases=1 bus1=SS_50_SC.3 Kv=7.2 Kw=64.9867 Model=1 Kvar=35.0761
New Generator.Gen_EBU2_LAB_PRI.1_model_1 Phases=1 bus1=EBU2_LAB_PRI.1 Kv=7.2 Kw=26.7867 Model=1 Kvar=14.4579
New Generator.Gen_EBU2_LAB_PRI.2_model_1 Phases=1 bus1=EBU2_LAB_PRI.2 Kv=7.2 Kw=26.7867 Model=1 Kvar=14.4579
New Generator.Gen_EBU2_LAB_PRI.3_model_1 Phases=1 bus1=EBU2_LAB_PRI.3 Kv=7.2 Kw=26.7867 Model=1 Kvar=14.4579
New Generator.Gen_PSA.1_model_1 Phases=1 bus1=PSA.1 Kv=7.2 Kw=5100 Model=1 Kvar=2752.6884
New Generator.Gen_PSA.2_model_1 Phases=1 bus1=PSA.2 Kv=7.2 Kw=5100 Model=1 Kvar=2752.6884
New Generator.Gen_PSA.3_model_1 Phases=1 bus1=PSA.3 Kv=7.2 Kw=5100 Model=1 Kvar=2752.6884
New Generator.Gen_SS_93_ERC.1_model_1 Phases=1 bus1=SS_93_ERC.1 Kv=7.2 Kw=112.6667 Model=1 Kvar=60.811
New Generator.Gen_SS_93_ERC.2_model_1 Phases=1 bus1=SS_93_ERC.2 Kv=7.2 Kw=112.6667 Model=1 Kvar=60.811
New Generator.Gen_SS_93_ERC.3_model_1 Phases=1 bus1=SS_93_ERC.3 Kv=7.2 Kw=112.6667 Model=1 Kvar=60.811
New Generator.Gen_SS_104_WC.1_model_1 Phases=1 bus1=SS_104_WC.1 Kv=7.2 Kw=68.87 Model=1 Kvar=37.1721
New Generator.Gen_SS_104_WC.2_model_1 Phases=1 bus1=SS_104_WC.2 Kv=7.2 Kw=68.87 Model=1 Kvar=37.1721
New Generator.Gen_SS_104_WC.3_model_1 Phases=1 bus1=SS_104_WC.3 Kv=7.2 Kw=68.87 Model=1 Kvar=37.1721
New Generator.Gen_SS_20_EC.1_model_1 Phases=1 bus1=SS_20_EC.1 Kv=7.2 Kw=95.7 Model=1 Kvar=51.6534
New Generator.Gen_SS_20_EC.2_model_1 Phases=1 bus1=SS_20_EC.2 Kv=7.2 Kw=95.7 Model=1 Kvar=51.6534
New Generator.Gen_SS_20_EC.3_model_1 Phases=1 bus1=SS_20_EC.3 Kv=7.2 Kw=95.7 Model=1 Kvar=51.6534


! Let DSS estimate the voltage bases
Set voltagebases=[115 69 12.47 4.16 2.4 0.48 0.24 0.208 0.12]
Calcvoltagebases     ! This also establishes the bus list

Buscoords OutputDSS_buscoords.csv


set maxiterations=1000
